tests/py_dss_interface/cases/8500-Node/UnbalancedLoads.DSS
! ----------------------------------------------------------------
! UNBalanced Load Case
!-----------------------------------------------------------------
!
!  Each load is defined as a 1-phase 120V load
!
New Load.138236B0a     phases=1 Bus1=SX2673305B.1 kV=.120 Status=variable Model=1 Conn=wye kW= 0.696180467009544    pf = 0.97 Vminpu = 0.88 
New Load.138236B0b     phases=1 Bus1=SX2673305B.2 kV=.120 Status=variable Model=1 Conn=wye kW= 3.19381953299046     pf = 0.97 Vminpu = 0.88 
New Load.138237B0a     phases=1 Bus1=SX3048196B.1 kV=.120 Status=variable Model=1 Conn=wye kW= 2.30339207649231     pf = 0.97 Vminpu = 0.88 
New Load.138237B0b     phases=1 Bus1=SX3048196B.2 kV=.120 Status=variable Model=1 Conn=wye kW= 3.53660792350769     pf = 0.97 Vminpu = 0.88 
New Load.138258C0a     phases=1 Bus1=SX2991911C.1 kV=.120 Status=variable Model=1 Conn=wye kW= 0.932027059793472    pf = 0.97 Vminpu = 0.88 
New Load.138258C0b     phases=1 Bus1=SX2991911C.2 kV=.120 Status=variable Model=1 Conn=wye kW= 5.16797294020653     pf = 0.97 Vminpu = 0.88 
New Load.138259C0a     phases=1 Bus1=SX2973158C.1 kV=.120 Status=variable Model=1 Conn=wye kW= 0.616065526008606    pf = 0.97 Vminpu = 0.88 
New Load.138259C0b     phases=1 Bus1=SX2973158C.2 kV=.120 Status=variable Model=1 Conn=wye kW= 5.48393447399139     pf = 0.97 Vminpu = 0.88 
New Load.138260A0a     phases=1 Bus1=SX3048208A.1 kV=.120 Status=variable Model=1 Conn=wye kW= 1.45716053724289     pf = 0.97 Vminpu = 0.88 
New Load.138260A0b     phases=1 Bus1=SX3048208A.2 kV=.120 Status=variable Model=1 Conn=wye kW= 3.86283946275711     pf = 0.97 Vminpu = 0.88 
New Load.138262A0a     phases=1 Bus1=SX3029502A.1 kV=.120 Status=variable Model=1 Conn=wye kW= 11.3558540940285     pf = 0.97 Vminpu = 0.88 
New Load.138262A0b     phases=1 Bus1=SX3029502A.2 kV=.120 Status=variable Model=1 Conn=wye kW= 6.38414590597153     pf = 0.97 Vminpu = 0.88 
New Load.138264B0a     phases=1 Bus1=SX3104125B.1 kV=.120 Status=variable Model=1 Conn=wye kW= 0.721058705449104    pf = 0.97 Vminpu = 0.88 
New Load.138264B0b     phases=1 Bus1=SX3104125B.2 kV=.120 Status=variable Model=1 Conn=wye kW= 9.0089412945509      pf = 0.97 Vminpu = 0.88 
New Load.138265A0a     phases=1 Bus1=SX3160107A.1 kV=.120 Status=variable Model=1 Conn=wye kW= 5.42583449840546     pf = 0.97 Vminpu = 0.88 
New Load.138265A0b     phases=1 Bus1=SX3160107A.2 kV=.120 Status=variable Model=1 Conn=wye kW= 3.44416550159454     pf = 0.97 Vminpu = 0.88 
New Load.138294B0a     phases=1 Bus1=SX2785516B.1 kV=.120 Status=variable Model=1 Conn=wye kW= 0.979905409812927    pf = 0.97 Vminpu = 0.88 
New Load.138294B0b     phases=1 Bus1=SX2785516B.2 kV=.120 Status=variable Model=1 Conn=wye kW= 4.86009459018707     pf = 0.97 Vminpu = 0.88 
New Load.138313A0a     phases=1 Bus1=SX3141400A.1 kV=.120 Status=variable Model=1 Conn=wye kW= 3.3028557240963      pf = 0.97 Vminpu = 0.88 
New Load.138313A0b     phases=1 Bus1=SX3141400A.2 kV=.120 Status=variable Model=1 Conn=wye kW= 0.247144275903702    pf = 0.97 Vminpu = 0.88 
New Load.138342C0a     phases=1 Bus1=SX2897775C.1 kV=.120 Status=variable Model=1 Conn=wye kW= 5.46709477722645     pf = 0.97 Vminpu = 0.88 
New Load.138342C0b     phases=1 Bus1=SX2897775C.2 kV=.120 Status=variable Model=1 Conn=wye kW= 4.70290522277355     pf = 0.97 Vminpu = 0.88 
New Load.138343C0a     phases=1 Bus1=SX3010565C.1 kV=.120 Status=variable Model=1 Conn=wye kW= 1.90731858491898     pf = 0.97 Vminpu = 0.88 
New Load.138343C0b     phases=1 Bus1=SX3010565C.2 kV=.120 Status=variable Model=1 Conn=wye kW= 2.16268141508102     pf = 0.97 Vminpu = 0.88 
New Load.138346C0a     phases=1 Bus1=SX2916609C.1 kV=.120 Status=variable Model=1 Conn=wye kW= 0.640997141599655    pf = 0.97 Vminpu = 0.88 
New Load.138346C0b     phases=1 Bus1=SX2916609C.2 kV=.120 Status=variable Model=1 Conn=wye kW= 5.45900285840034     pf = 0.97 Vminpu = 0.88 
New Load.138371C0a     phases=1 Bus1=SX2879073C.1 kV=.120 Status=variable Model=1 Conn=wye kW= 5.15049561262131     pf = 0.97 Vminpu = 0.88 
New Load.138371C0b     phases=1 Bus1=SX2879073C.2 kV=.120 Status=variable Model=1 Conn=wye kW= 0.949504387378693    pf = 0.97 Vminpu = 0.88 
New Load.138372C0a     phases=1 Bus1=SX3104126C.1 kV=.120 Status=variable Model=1 Conn=wye kW= 3.53355606496334     pf = 0.97 Vminpu = 0.88 
New Load.138372C0b     phases=1 Bus1=SX3104126C.2 kV=.120 Status=variable Model=1 Conn=wye kW= 0.536443935036659    pf = 0.97 Vminpu = 0.88 
New Load.138373C0a     phases=1 Bus1=SX3029503C.1 kV=.120 Status=variable Model=1 Conn=wye kW= 3.10627183914185     pf = 0.97 Vminpu = 0.88 
New Load.138373C0b     phases=1 Bus1=SX3029503C.2 kV=.120 Status=variable Model=1 Conn=wye kW= 2.99372816085815     pf = 0.97 Vminpu = 0.88 
New Load.138374C0a     phases=1 Bus1=SX2691950C.1 kV=.120 Status=variable Model=1 Conn=wye kW= 1.3819062012434      pf = 0.97 Vminpu = 0.88 
New Load.138374C0b     phases=1 Bus1=SX2691950C.2 kV=.120 Status=variable Model=1 Conn=wye kW= 8.7880937987566      pf = 0.97 Vminpu = 0.88 
New Load.138379C0a     phases=1 Bus1=SX2691951C.1 kV=.120 Status=variable Model=1 Conn=wye kW= 5.53433520913124     pf = 0.97 Vminpu = 0.88 
New Load.138379C0b     phases=1 Bus1=SX2691951C.2 kV=.120 Status=variable Model=1 Conn=wye kW= 4.63566479086876     pf = 0.97 Vminpu = 0.88 
New Load.138380C0a     phases=1 Bus1=SX2879076C.1 kV=.120 Status=variable Model=1 Conn=wye kW= 2.61281781375408     pf = 0.97 Vminpu = 0.88 
New Load.138380C0b     phases=1 Bus1=SX2879076C.2 kV=.120 Status=variable Model=1 Conn=wye kW= 1.45718218624592     pf = 0.97 Vminpu = 0.88 
New Load.138404C0a     phases=1 Bus1=SX2841630C.1 kV=.120 Status=variable Model=1 Conn=wye kW= 8.31935176134109     pf = 0.97 Vminpu = 0.88 
New Load.138404C0b     phases=1 Bus1=SX2841630C.2 kV=.120 Status=variable Model=1 Conn=wye kW= 1.85064823865891     pf = 0.97 Vminpu = 0.88 
New Load.138405C0a     phases=1 Bus1=SX2841629C.1 kV=.120 Status=variable Model=1 Conn=wye kW= 8.68428897500038     pf = 0.97 Vminpu = 0.88 
New Load.138405C0b     phases=1 Bus1=SX2841629C.2 kV=.120 Status=variable Model=1 Conn=wye kW= 6.57571102499962     pf = 0.97 Vminpu = 0.88 
New Load.138412C0a     phases=1 Bus1=SX2785523C.1 kV=.120 Status=variable Model=1 Conn=wye kW= 2.53578065633774     pf = 0.97 Vminpu = 0.88 
New Load.138412C0b     phases=1 Bus1=SX2785523C.2 kV=.120 Status=variable Model=1 Conn=wye kW= 3.56421934366226     pf = 0.97 Vminpu = 0.88 
New Load.138413C0a     phases=1 Bus1=SX3216347C.1 kV=.120 Status=variable Model=1 Conn=wye kW= 4.66030400395393     pf = 0.97 Vminpu = 0.88 
New Load.138413C0b     phases=1 Bus1=SX3216347C.2 kV=.120 Status=variable Model=1 Conn=wye kW= 1.43969599604607     pf = 0.97 Vminpu = 0.88 
New Load.138416C0a     phases=1 Bus1=SX3141388C.1 kV=.120 Status=variable Model=1 Conn=wye kW= 2.00353498935699     pf = 0.97 Vminpu = 0.88 
New Load.138416C0b     phases=1 Bus1=SX3141388C.2 kV=.120 Status=variable Model=1 Conn=wye kW= 2.06646501064301     pf = 0.97 Vminpu = 0.88 
New Load.138464C0a     phases=1 Bus1=SX3066801C.1 kV=.120 Status=variable Model=1 Conn=wye kW= 2.74935719311237     pf = 0.97 Vminpu = 0.88 
New Load.138464C0b     phases=1 Bus1=SX3066801C.2 kV=.120 Status=variable Model=1 Conn=wye kW= 1.32064280688763     pf = 0.97 Vminpu = 0.88 
New Load.138465C0a     phases=1 Bus1=SX2879055C.1 kV=.120 Status=variable Model=1 Conn=wye kW= 3.90297761797905     pf = 0.97 Vminpu = 0.88 
New Load.138465C0b     phases=1 Bus1=SX2879055C.2 kV=.120 Status=variable Model=1 Conn=wye kW= 0.16702238202095     pf = 0.97 Vminpu = 0.88 
New Load.138466C0a     phases=1 Bus1=SX2973144C.1 kV=.120 Status=variable Model=1 Conn=wye kW= 8.10096781075001     pf = 0.97 Vminpu = 0.88 
New Load.138466C0b     phases=1 Bus1=SX2973144C.2 kV=.120 Status=variable Model=1 Conn=wye kW= 2.06903218924999     pf = 0.97 Vminpu = 0.88 
New Load.138469C0a     phases=1 Bus1=SX2785518C.1 kV=.120 Status=variable Model=1 Conn=wye kW= 4.01072108745575     pf = 0.97 Vminpu = 0.88 
New Load.138469C0b     phases=1 Bus1=SX2785518C.2 kV=.120 Status=variable Model=1 Conn=wye kW= 2.08927891254425     pf = 0.97 Vminpu = 0.88 
New Load.138470C0a     phases=1 Bus1=SX2766717C.1 kV=.120 Status=variable Model=1 Conn=wye kW= 2.60895431101322     pf = 0.97 Vminpu = 0.88 
New Load.138470C0b     phases=1 Bus1=SX2766717C.2 kV=.120 Status=variable Model=1 Conn=wye kW= 1.46104568898678     pf = 0.97 Vminpu = 0.88 
New Load.138472C0a     phases=1 Bus1=SX2673309C.1 kV=.120 Status=variable Model=1 Conn=wye kW= 9.44700153708458     pf = 0.97 Vminpu = 0.88 
New Load.138472C0b     phases=1 Bus1=SX2673309C.2 kV=.120 Status=variable Model=1 Conn=wye kW= 0.72299846291542     pf = 0.97 Vminpu = 0.88 
New Load.138560A0a     phases=1 Bus1=SX3104113A.1 kV=.120 Status=variable Model=1 Conn=wye kW= 4.76630929410458     pf = 0.97 Vminpu = 0.88 
New Load.138560A0b     phases=1 Bus1=SX3104113A.2 kV=.120 Status=variable Model=1 Conn=wye kW= 4.10369070589542     pf = 0.97 Vminpu = 0.88 
New Load.138561A0a     phases=1 Bus1=SX3104121A.1 kV=.120 Status=variable Model=1 Conn=wye kW= 6.50350156784058     pf = 0.97 Vminpu = 0.88 
New Load.138561A0b     phases=1 Bus1=SX3104121A.2 kV=.120 Status=variable Model=1 Conn=wye kW= 2.36649843215942     pf = 0.97 Vminpu = 0.88 
New Load.138562A0a     phases=1 Bus1=SX2673310A.1 kV=.120 Status=variable Model=1 Conn=wye kW= 6.82647125542164     pf = 0.97 Vminpu = 0.88 
New Load.138562A0b     phases=1 Bus1=SX2673310A.2 kV=.120 Status=variable Model=1 Conn=wye kW= 2.04352874457836     pf = 0.97 Vminpu = 0.88 
New Load.138563A0a     phases=1 Bus1=SX2916627A.1 kV=.120 Status=variable Model=1 Conn=wye kW= 6.43954766631126     pf = 0.97 Vminpu = 0.88 
New Load.138563A0b     phases=1 Bus1=SX2916627A.2 kV=.120 Status=variable Model=1 Conn=wye kW= 2.43045233368874     pf = 0.97 Vminpu = 0.88 
New Load.138564A0a     phases=1 Bus1=SX2804283A.1 kV=.120 Status=variable Model=1 Conn=wye kW= 7.51748701274395     pf = 0.97 Vminpu = 0.88 
New Load.138564A0b     phases=1 Bus1=SX2804283A.2 kV=.120 Status=variable Model=1 Conn=wye kW= 1.35251298725605     pf = 0.97 Vminpu = 0.88 
New Load.138565A0a     phases=1 Bus1=SX3104122A.1 kV=.120 Status=variable Model=1 Conn=wye kW= 8.4127882361412      pf = 0.97 Vminpu = 0.88 
New Load.138565A0b     phases=1 Bus1=SX3104122A.2 kV=.120 Status=variable Model=1 Conn=wye kW= 0.457211763858796    pf = 0.97 Vminpu = 0.88 
New Load.138566A0a     phases=1 Bus1=SX2785519A.1 kV=.120 Status=variable Model=1 Conn=wye kW= 8.3076517778635      pf = 0.97 Vminpu = 0.88 
New Load.138566A0b     phases=1 Bus1=SX2785519A.2 kV=.120 Status=variable Model=1 Conn=wye kW= 0.562348222136498    pf = 0.97 Vminpu = 0.88 
New Load.138567A0a     phases=1 Bus1=SX2748129A.1 kV=.120 Status=variable Model=1 Conn=wye kW= 0.489392793178558    pf = 0.97 Vminpu = 0.88 
New Load.138567A0b     phases=1 Bus1=SX2748129A.2 kV=.120 Status=variable Model=1 Conn=wye kW= 12.8106072068214     pf = 0.97 Vminpu = 0.88 
New Load.138569A0a     phases=1 Bus1=SX2973151A.1 kV=.120 Status=variable Model=1 Conn=wye kW= 3.8825451207161      pf = 0.97 Vminpu = 0.88 
New Load.138569A0b     phases=1 Bus1=SX2973151A.2 kV=.120 Status=variable Model=1 Conn=wye kW= 1.43745487928391     pf = 0.97 Vminpu = 0.88 
New Load.138570A0a     phases=1 Bus1=SX2748146A.1 kV=.120 Status=variable Model=1 Conn=wye kW= 0.57196382522583     pf = 0.97 Vminpu = 0.88 
New Load.138570A0b     phases=1 Bus1=SX2748146A.2 kV=.120 Status=variable Model=1 Conn=wye kW= 4.74803617477417     pf = 0.97 Vminpu = 0.88 
New Load.138571A0a     phases=1 Bus1=SX2991913A.1 kV=.120 Status=variable Model=1 Conn=wye kW= 1.55185956716537     pf = 0.97 Vminpu = 0.88 
New Load.138571A0b     phases=1 Bus1=SX2991913A.2 kV=.120 Status=variable Model=1 Conn=wye kW= 3.76814043283463     pf = 0.97 Vminpu = 0.88 
New Load.138573A0a     phases=1 Bus1=SX3235253A.1 kV=.120 Status=variable Model=1 Conn=wye kW= 6.42777684092522     pf = 0.97 Vminpu = 0.88 
New Load.138573A0b     phases=1 Bus1=SX3235253A.2 kV=.120 Status=variable Model=1 Conn=wye kW= 2.44222315907478     pf = 0.97 Vminpu = 0.88 
New Load.138574A0a     phases=1 Bus1=SX2991907A.1 kV=.120 Status=variable Model=1 Conn=wye kW= 5.82470866858959     pf = 0.97 Vminpu = 0.88 
New Load.138574A0b     phases=1 Bus1=SX2991907A.2 kV=.120 Status=variable Model=1 Conn=wye kW= 3.04529133141041     pf = 0.97 Vminpu = 0.88 
New Load.138581A0a     phases=1 Bus1=SX2879064A.1 kV=.120 Status=variable Model=1 Conn=wye kW= 5.37039572954178     pf = 0.97 Vminpu = 0.88 
New Load.138581A0b     phases=1 Bus1=SX2879064A.2 kV=.120 Status=variable Model=1 Conn=wye kW= 3.49960427045822     pf = 0.97 Vminpu = 0.88 
New Load.138585C0a     phases=1 Bus1=SX3197637C.1 kV=.120 Status=variable Model=1 Conn=wye kW= 0.863561273217201    pf = 0.97 Vminpu = 0.88 
New Load.138585C0b     phases=1 Bus1=SX3197637C.2 kV=.120 Status=variable Model=1 Conn=wye kW= 3.2064387267828      pf = 0.97 Vminpu = 0.88 
New Load.138586C0a     phases=1 Bus1=SX2860487C.1 kV=.120 Status=variable Model=1 Conn=wye kW= 5.91896427869797     pf = 0.97 Vminpu = 0.88 
New Load.138586C0b     phases=1 Bus1=SX2860487C.2 kV=.120 Status=variable Model=1 Conn=wye kW= 0.181035721302033    pf = 0.97 Vminpu = 0.88 
New Load.138641C0a     phases=1 Bus1=SX2841638C.1 kV=.120 Status=variable Model=1 Conn=wye kW= 0.905626183748245    pf = 0.97 Vminpu = 0.88 
New Load.138641C0b     phases=1 Bus1=SX2841638C.2 kV=.120 Status=variable Model=1 Conn=wye kW= 5.19437381625175     pf = 0.97 Vminpu = 0.88 
New Load.138642A0a     phases=1 Bus1=SX3235256A.1 kV=.120 Status=variable Model=1 Conn=wye kW= 3.69108180999756     pf = 0.97 Vminpu = 0.88 
New Load.138642A0b     phases=1 Bus1=SX3235256A.2 kV=.120 Status=variable Model=1 Conn=wye kW= 1.62891819000244     pf = 0.97 Vminpu = 0.88 
New Load.138644A0a     phases=1 Bus1=SX3197630A.1 kV=.120 Status=variable Model=1 Conn=wye kW= 4.48774401962757     pf = 0.97 Vminpu = 0.88 
New Load.138644A0b     phases=1 Bus1=SX3197630A.2 kV=.120 Status=variable Model=1 Conn=wye kW= 4.38225598037243     pf = 0.97 Vminpu = 0.88 
New Load.138645B0a     phases=1 Bus1=SX3104120B.1 kV=.120 Status=variable Model=1 Conn=wye kW= 3.86900570869446     pf = 0.97 Vminpu = 0.88 
New Load.138645B0b     phases=1 Bus1=SX3104120B.2 kV=.120 Status=variable Model=1 Conn=wye kW= 1.97099429130554     pf = 0.97 Vminpu = 0.88 
New Load.138646A0a     phases=1 Bus1=SX2804251A.1 kV=.120 Status=variable Model=1 Conn=wye kW= 2.13520937860012     pf = 0.97 Vminpu = 0.88 
New Load.138646A0b     phases=1 Bus1=SX2804251A.2 kV=.120 Status=variable Model=1 Conn=wye kW= 1.41479062139988     pf = 0.97 Vminpu = 0.88 
New Load.138647C0a     phases=1 Bus1=SX3254210C.1 kV=.120 Status=variable Model=1 Conn=wye kW= 6.07667944431305     pf = 0.97 Vminpu = 0.88 
New Load.138647C0b     phases=1 Bus1=SX3254210C.2 kV=.120 Status=variable Model=1 Conn=wye kW= 2.33205556869507E-02 pf = 0.97 Vminpu = 0.88 
New Load.138649A0a     phases=1 Bus1=SX3048206A.1 kV=.120 Status=variable Model=1 Conn=wye kW= 7.67008161604404     pf = 0.97 Vminpu = 0.88 
New Load.138649A0b     phases=1 Bus1=SX3048206A.2 kV=.120 Status=variable Model=1 Conn=wye kW= 1.19991838395596     pf = 0.97 Vminpu = 0.88 
New Load.138650C0a     phases=1 Bus1=SX2710510C.1 kV=.120 Status=variable Model=1 Conn=wye kW= 0.156969414949417    pf = 0.97 Vminpu = 0.88 
New Load.138650C0b     phases=1 Bus1=SX2710510C.2 kV=.120 Status=variable Model=1 Conn=wye kW= 3.91303058505058     pf = 0.97 Vminpu = 0.88 
New Load.138651C0a     phases=1 Bus1=SX3197628C.1 kV=.120 Status=variable Model=1 Conn=wye kW= 3.72313893377781     pf = 0.97 Vminpu = 0.88 
New Load.138651C0b     phases=1 Bus1=SX3197628C.2 kV=.120 Status=variable Model=1 Conn=wye kW= 6.44686106622219     pf = 0.97 Vminpu = 0.88 
New Load.138652C0a     phases=1 Bus1=SX2766718C.1 kV=.120 Status=variable Model=1 Conn=wye kW= 4.17881947517395     pf = 0.97 Vminpu = 0.88 
New Load.138652C0b     phases=1 Bus1=SX2766718C.2 kV=.120 Status=variable Model=1 Conn=wye kW= 11.081180524826      pf = 0.97 Vminpu = 0.88 
New Load.138655A0a     phases=1 Bus1=SX3010556A.1 kV=.120 Status=variable Model=1 Conn=wye kW= 3.01712541341782     pf = 0.97 Vminpu = 0.88 
New Load.138655A0b     phases=1 Bus1=SX3010556A.2 kV=.120 Status=variable Model=1 Conn=wye kW= 2.30287458658218     pf = 0.97 Vminpu = 0.88 
New Load.138679A0a     phases=1 Bus1=SX2710520A.1 kV=.120 Status=variable Model=1 Conn=wye kW= 3.05977079868317     pf = 0.97 Vminpu = 0.88 
New Load.138679A0b     phases=1 Bus1=SX2710520A.2 kV=.120 Status=variable Model=1 Conn=wye kW= 2.26022920131683     pf = 0.97 Vminpu = 0.88 
New Load.138680A0a     phases=1 Bus1=SX2710521A.1 kV=.120 Status=variable Model=1 Conn=wye kW= 0.664908358454704    pf = 0.97 Vminpu = 0.88 
New Load.138680A0b     phases=1 Bus1=SX2710521A.2 kV=.120 Status=variable Model=1 Conn=wye kW= 8.20509164154529     pf = 0.97 Vminpu = 0.88 
New Load.138684A0a     phases=1 Bus1=SX3085396A.1 kV=.120 Status=variable Model=1 Conn=wye kW= 3.91537283182144     pf = 0.97 Vminpu = 0.88 
New Load.138684A0b     phases=1 Bus1=SX3085396A.2 kV=.120 Status=variable Model=1 Conn=wye kW= 4.95462716817856     pf = 0.97 Vminpu = 0.88 
New Load.138685A0a     phases=1 Bus1=SX3122813A.1 kV=.120 Status=variable Model=1 Conn=wye kW= 2.29734759092331     pf = 0.97 Vminpu = 0.88 
New Load.138685A0b     phases=1 Bus1=SX3122813A.2 kV=.120 Status=variable Model=1 Conn=wye kW= 3.02265240907669     pf = 0.97 Vminpu = 0.88 
New Load.138716C0a     phases=1 Bus1=SX3254219C.1 kV=.120 Status=variable Model=1 Conn=wye kW= 1.3092828977108      pf = 0.97 Vminpu = 0.88 
New Load.138716C0b     phases=1 Bus1=SX3254219C.2 kV=.120 Status=variable Model=1 Conn=wye kW= 8.8607171022892      pf = 0.97 Vminpu = 0.88 
New Load.138717C0a     phases=1 Bus1=SX3254220C.1 kV=.120 Status=variable Model=1 Conn=wye kW= 2.24819816172123     pf = 0.97 Vminpu = 0.88 
New Load.138717C0b     phases=1 Bus1=SX3254220C.2 kV=.120 Status=variable Model=1 Conn=wye kW= 7.92180183827877     pf = 0.97 Vminpu = 0.88 
New Load.138718C0a     phases=1 Bus1=SX3104134C.1 kV=.120 Status=variable Model=1 Conn=wye kW= 8.46614170074463     pf = 0.97 Vminpu = 0.88 
New Load.138718C0b     phases=1 Bus1=SX3104134C.2 kV=.120 Status=variable Model=1 Conn=wye kW= 1.70385829925537     pf = 0.97 Vminpu = 0.88 
New Load.138719A0a     phases=1 Bus1=SX2860490A.1 kV=.120 Status=variable Model=1 Conn=wye kW= 0.183259337544441    pf = 0.97 Vminpu = 0.88 
New Load.138719A0b     phases=1 Bus1=SX2860490A.2 kV=.120 Status=variable Model=1 Conn=wye kW= 8.68674066245556     pf = 0.97 Vminpu = 0.88 
New Load.138720A0a     phases=1 Bus1=SX3254218A.1 kV=.120 Status=variable Model=1 Conn=wye kW= 2.89486701369286     pf = 0.97 Vminpu = 0.88 
New Load.138720A0b     phases=1 Bus1=SX3254218A.2 kV=.120 Status=variable Model=1 Conn=wye kW= 5.97513298630714     pf = 0.97 Vminpu = 0.88 
New Load.138751B0a     phases=1 Bus1=SX3066818B.1 kV=.120 Status=variable Model=1 Conn=wye kW= 9.59230809271336     pf = 0.97 Vminpu = 0.88 
New Load.138751B0b     phases=1 Bus1=SX3066818B.2 kV=.120 Status=variable Model=1 Conn=wye kW= 0.137691907286644    pf = 0.97 Vminpu = 0.88 
New Load.138752B0a     phases=1 Bus1=SX2785528B.1 kV=.120 Status=variable Model=1 Conn=wye kW= 4.17620378494263     pf = 0.97 Vminpu = 0.88 
New Load.138752B0b     phases=1 Bus1=SX2785528B.2 kV=.120 Status=variable Model=1 Conn=wye kW= 1.66379621505737     pf = 0.97 Vminpu = 0.88 
New Load.138753B0a     phases=1 Bus1=SX2748130B.1 kV=.120 Status=variable Model=1 Conn=wye kW= 0.89254738509655     pf = 0.97 Vminpu = 0.88 
New Load.138753B0b     phases=1 Bus1=SX2748130B.2 kV=.120 Status=variable Model=1 Conn=wye kW= 8.83745261490345     pf = 0.97 Vminpu = 0.88 
New Load.138754B0a     phases=1 Bus1=SX3254212B.1 kV=.120 Status=variable Model=1 Conn=wye kW= 3.00803367257118     pf = 0.97 Vminpu = 0.88 
New Load.138754B0b     phases=1 Bus1=SX3254212B.2 kV=.120 Status=variable Model=1 Conn=wye kW= 11.5819663274288     pf = 0.97 Vminpu = 0.88 
New Load.138755B0a     phases=1 Bus1=SX2785520B.1 kV=.120 Status=variable Model=1 Conn=wye kW= 1.23461380779743     pf = 0.97 Vminpu = 0.88 
New Load.138755B0b     phases=1 Bus1=SX2785520B.2 kV=.120 Status=variable Model=1 Conn=wye kW= 2.65538619220257     pf = 0.97 Vminpu = 0.88 
New Load.138769A0a     phases=1 Bus1=SX2729411A.1 kV=.120 Status=variable Model=1 Conn=wye kW= 0.204705214500427    pf = 0.97 Vminpu = 0.88 
New Load.138769A0b     phases=1 Bus1=SX2729411A.2 kV=.120 Status=variable Model=1 Conn=wye kW= 3.34529478549957     pf = 0.97 Vminpu = 0.88 
New Load.138770A0a     phases=1 Bus1=SX2897781A.1 kV=.120 Status=variable Model=1 Conn=wye kW= 1.07414735853672     pf = 0.97 Vminpu = 0.88 
New Load.138770A0b     phases=1 Bus1=SX2897781A.2 kV=.120 Status=variable Model=1 Conn=wye kW= 2.47585264146328     pf = 0.97 Vminpu = 0.88 
New Load.138771A0a     phases=1 Bus1=SX3197644A.1 kV=.120 Status=variable Model=1 Conn=wye kW= 0.574874138832092    pf = 0.97 Vminpu = 0.88 
New Load.138771A0b     phases=1 Bus1=SX3197644A.2 kV=.120 Status=variable Model=1 Conn=wye kW= 4.74512586116791     pf = 0.97 Vminpu = 0.88 
New Load.138776C0a     phases=1 Bus1=SX3010566C.1 kV=.120 Status=variable Model=1 Conn=wye kW= 1.57651792168617     pf = 0.97 Vminpu = 0.88 
New Load.138776C0b     phases=1 Bus1=SX3010566C.2 kV=.120 Status=variable Model=1 Conn=wye kW= 4.52348207831383     pf = 0.97 Vminpu = 0.88 
New Load.138796B0a     phases=1 Bus1=SX3236011B.1 kV=.120 Status=variable Model=1 Conn=wye kW= 3.17862752914429     pf = 0.97 Vminpu = 0.88 
New Load.138796B0b     phases=1 Bus1=SX3236011B.2 kV=.120 Status=variable Model=1 Conn=wye kW= 2.66137247085571     pf = 0.97 Vminpu = 0.88 
New Load.138797B0a     phases=1 Bus1=SX3198358B.1 kV=.120 Status=variable Model=1 Conn=wye kW= 2.38206663906574     pf = 0.97 Vminpu = 0.88 
New Load.138797B0b     phases=1 Bus1=SX3198358B.2 kV=.120 Status=variable Model=1 Conn=wye kW= 12.2079333609343     pf = 0.97 Vminpu = 0.88 
New Load.138798B0a     phases=1 Bus1=SX3104859B.1 kV=.120 Status=variable Model=1 Conn=wye kW= 4.75561747550964     pf = 0.97 Vminpu = 0.88 
New Load.138798B0b     phases=1 Bus1=SX3104859B.2 kV=.120 Status=variable Model=1 Conn=wye kW= 1.08438252449036     pf = 0.97 Vminpu = 0.88 
New Load.157715B0a     phases=1 Bus1=SX2936275B.1 kV=.120 Status=variable Model=1 Conn=wye kW= 2.04099854767323     pf = 0.97 Vminpu = 0.88 
New Load.157715B0b     phases=1 Bus1=SX2936275B.2 kV=.120 Status=variable Model=1 Conn=wye kW= 1.84900145232677     pf = 0.97 Vminpu = 0.88 
New Load.157716B0a     phases=1 Bus1=SX3179674B.1 kV=.120 Status=variable Model=1 Conn=wye kW= 8.17862984657288     pf = 0.97 Vminpu = 0.88 
New Load.157716B0b     phases=1 Bus1=SX3179674B.2 kV=.120 Status=variable Model=1 Conn=wye kW= 1.55137015342712     pf = 0.97 Vminpu = 0.88 
New Load.157717B0a     phases=1 Bus1=SX2748840B.1 kV=.120 Status=variable Model=1 Conn=wye kW= 1.39889852046967     pf = 0.97 Vminpu = 0.88 
New Load.157717B0b     phases=1 Bus1=SX2748840B.2 kV=.120 Status=variable Model=1 Conn=wye kW= 4.44110147953033     pf = 0.97 Vminpu = 0.88 
New Load.157718B0a     phases=1 Bus1=SX3142099B.1 kV=.120 Status=variable Model=1 Conn=wye kW= 9.14856792569161     pf = 0.97 Vminpu = 0.88 
New Load.157718B0b     phases=1 Bus1=SX3142099B.2 kV=.120 Status=variable Model=1 Conn=wye kW= 0.581432074308395    pf = 0.97 Vminpu = 0.88 
New Load.207286C0a     phases=1 Bus1=SX3011298C.1 kV=.120 Status=variable Model=1 Conn=wye kW= 1.35406212985516     pf = 0.97 Vminpu = 0.88 
New Load.207286C0b     phases=1 Bus1=SX3011298C.2 kV=.120 Status=variable Model=1 Conn=wye kW= 2.71593787014484     pf = 0.97 Vminpu = 0.88 
New Load.207287B0a     phases=1 Bus1=SX2711234B.1 kV=.120 Status=variable Model=1 Conn=wye kW= 1.06192909479141     pf = 0.97 Vminpu = 0.88 
New Load.207287B0b     phases=1 Bus1=SX2711234B.2 kV=.120 Status=variable Model=1 Conn=wye kW= 8.66807090520859     pf = 0.97 Vminpu = 0.88 
New Load.207288B0a     phases=1 Bus1=SX3198355B.1 kV=.120 Status=variable Model=1 Conn=wye kW= 2.35699640452862     pf = 0.97 Vminpu = 0.88 
New Load.207288B0b     phases=1 Bus1=SX3198355B.2 kV=.120 Status=variable Model=1 Conn=wye kW= 1.53300359547138     pf = 0.97 Vminpu = 0.88 
New Load.207290A0a     phases=1 Bus1=SX2879773A.1 kV=.120 Status=variable Model=1 Conn=wye kW= 5.09814939618111     pf = 0.97 Vminpu = 0.88 
New Load.207290A0b     phases=1 Bus1=SX2879773A.2 kV=.120 Status=variable Model=1 Conn=wye kW= 3.77185060381889     pf = 0.97 Vminpu = 0.88 
New Load.207291C0a     phases=1 Bus1=SX2786274C.1 kV=.120 Status=variable Model=1 Conn=wye kW= 4.86335722982883     pf = 0.97 Vminpu = 0.88 
New Load.207291C0b     phases=1 Bus1=SX2786274C.2 kV=.120 Status=variable Model=1 Conn=wye kW= 5.30664277017117     pf = 0.97 Vminpu = 0.88 
New Load.207292C0a     phases=1 Bus1=SX3179682C.1 kV=.120 Status=variable Model=1 Conn=wye kW= 4.72984499931335     pf = 0.97 Vminpu = 0.88 
New Load.207292C0b     phases=1 Bus1=SX3179682C.2 kV=.120 Status=variable Model=1 Conn=wye kW= 1.37015500068665     pf = 0.97 Vminpu = 0.88 
New Load.218472A0a     phases=1 Bus1=SX2936270A.1 kV=.120 Status=variable Model=1 Conn=wye kW= 4.868102825284       pf = 0.97 Vminpu = 0.88 
New Load.218472A0b     phases=1 Bus1=SX2936270A.2 kV=.120 Status=variable Model=1 Conn=wye kW= 4.001897174716       pf = 0.97 Vminpu = 0.88 
New Load.218473A0a     phases=1 Bus1=SX3086078A.1 kV=.120 Status=variable Model=1 Conn=wye kW= 1.51733362078667     pf = 0.97 Vminpu = 0.88 
New Load.218473A0b     phases=1 Bus1=SX3086078A.2 kV=.120 Status=variable Model=1 Conn=wye kW= 7.35266637921333     pf = 0.97 Vminpu = 0.88 
New Load.218474A0a     phases=1 Bus1=SX3217056A.1 kV=.120 Status=variable Model=1 Conn=wye kW= 11.7821743142605     pf = 0.97 Vminpu = 0.88 
New Load.218474A0b     phases=1 Bus1=SX3217056A.2 kV=.120 Status=variable Model=1 Conn=wye kW= 5.95782568573952     pf = 0.97 Vminpu = 0.88 
New Load.218475A0a     phases=1 Bus1=SX3217057A.1 kV=.120 Status=variable Model=1 Conn=wye kW= 1.9275314450264      pf = 0.97 Vminpu = 0.88 
New Load.218475A0b     phases=1 Bus1=SX3217057A.2 kV=.120 Status=variable Model=1 Conn=wye kW= 1.6224685549736      pf = 0.97 Vminpu = 0.88 
New Load.223655C0a     phases=1 Bus1=SX2936268C.1 kV=.120 Status=variable Model=1 Conn=wye kW= 3.17055389285088     pf = 0.97 Vminpu = 0.88 
New Load.223655C0b     phases=1 Bus1=SX2936268C.2 kV=.120 Status=variable Model=1 Conn=wye kW= 2.92944610714912     pf = 0.97 Vminpu = 0.88 
New Load.223658A0a     phases=1 Bus1=SX2823592A.1 kV=.120 Status=variable Model=1 Conn=wye kW= 1.21636754393578     pf = 0.97 Vminpu = 0.88 
New Load.223658A0b     phases=1 Bus1=SX2823592A.2 kV=.120 Status=variable Model=1 Conn=wye kW= 0.553632456064224    pf = 0.97 Vminpu = 0.88 
New Load.223660C0a     phases=1 Bus1=SX3160863C.1 kV=.120 Status=variable Model=1 Conn=wye kW= 0.480949193239212    pf = 0.97 Vminpu = 0.88 
New Load.223660C0b     phases=1 Bus1=SX3160863C.2 kV=.120 Status=variable Model=1 Conn=wye kW= 5.61905080676079     pf = 0.97 Vminpu = 0.88 
New Load.223661C0a     phases=1 Bus1=SX2730108C.1 kV=.120 Status=variable Model=1 Conn=wye kW= 4.02298564910889     pf = 0.97 Vminpu = 0.88 
New Load.223661C0b     phases=1 Bus1=SX2730108C.2 kV=.120 Status=variable Model=1 Conn=wye kW= 2.07701435089111     pf = 0.97 Vminpu = 0.88 
New Load.223662C0a     phases=1 Bus1=SX2786204C.1 kV=.120 Status=variable Model=1 Conn=wye kW= 5.16334467053413     pf = 0.97 Vminpu = 0.88 
New Load.223662C0b     phases=1 Bus1=SX2786204C.2 kV=.120 Status=variable Model=1 Conn=wye kW= 10.0966553294659     pf = 0.97 Vminpu = 0.88 
New Load.223663C0a     phases=1 Bus1=SX2936216C.1 kV=.120 Status=variable Model=1 Conn=wye kW= 3.97553170561791     pf = 0.97 Vminpu = 0.88 
New Load.223663C0b     phases=1 Bus1=SX2936216C.2 kV=.120 Status=variable Model=1 Conn=wye kW= 9.44682943820951E-02 pf = 0.97 Vminpu = 0.88 
New Load.247036C0a     phases=1 Bus1=SX3029498C.1 kV=.120 Status=variable Model=1 Conn=wye kW= 0.911813089251518    pf = 0.97 Vminpu = 0.88 
New Load.247036C0b     phases=1 Bus1=SX3029498C.2 kV=.120 Status=variable Model=1 Conn=wye kW= 3.15818691074848     pf = 0.97 Vminpu = 0.88 
New Load.247056A0a     phases=1 Bus1=SX2991912A.1 kV=.120 Status=variable Model=1 Conn=wye kW= 2.29926190376282     pf = 0.97 Vminpu = 0.88 
New Load.247056A0b     phases=1 Bus1=SX2991912A.2 kV=.120 Status=variable Model=1 Conn=wye kW= 3.02073809623718     pf = 0.97 Vminpu = 0.88 
...
